%chk=molecule.chk
#freq b3lyp/6-31g(d)

acc1_D1_R2R200_A2_R3__n1 ground state

0 1
C -6.351587 -0.181486 0.000023
C -5.810414 1.139557 -0.000048
C -4.442637 1.382233 -0.000072
C -3.575314 0.279054 -0.000026
C -4.117260 -1.041858 0.000044
C -5.483618 -1.284298 0.000068
C -7.792003 -0.169220 0.000037
C -8.313727 1.083626 -0.000020
H -8.396583 -1.069967 0.000087
H -9.359495 1.362422 -0.000023
C -2.142668 0.270646 -0.000039
C -1.589459 -0.982491 0.000019
S -2.836043 -2.248859 0.000094
H -1.548326 1.178873 -0.000092
S -7.096101 2.344408 -0.000093
O -3.943609 2.690274 -0.000141
C -2.537364 2.663971 0.258087
H -2.183111 3.662767 0.405777
H -2.346928 2.084355 1.137108
H -2.029827 2.225112 -0.575405
O -5.982296 -2.592472 0.000136
C -7.223715 -2.629330 0.708951
H -7.530464 -3.646213 0.838391
H -7.101163 -2.169040 1.667081
H -7.968413 -2.100316 0.151753
C -0.212303 -1.234370 0.000021
C 2.301925 -1.272538 -0.301338
C 1.829655 -1.746554 0.878641
C 0.510990 -1.726536 1.036698
C 0.165378 -2.259462 2.428868
C 2.478309 -2.294574 2.151637
O 3.708276 -2.278166 2.417118
N 1.401787 -2.843509 3.028966
H 3.329939 -1.111616 -0.550718
O -0.965981 -2.207207 2.977382
S 0.905013 -0.956042 -1.354653
C 1.568590 -2.509775 4.378335
H 2.036149 -3.323740 4.891901
H 2.183998 -1.637976 4.456692
H 0.613110 -2.312542 4.817717



